[TITLE]


[JUNCTIONS]
;ID              	Elev        	Demand      	Pattern         
 102368320       	-0.9470     	0.595800    	Stavoren@       	; 101451708
 102368330       	-1.7940     	0.581300    	Stavoren@       	; 101451719
 101639545       	-0.4340     	0.388500    	Heeg@           	; 101639531
 101802241       	1.1870      	0.023800    	Stavoren@       	; 101802205
 102502880       	-0.7410     	0.186600    	Sneek@          	; 102502855
 102503531       	-0.8720     	0.113600    	Sneek@          	; 102503405
 102503545       	-0.9740     	0.023100    	Sneek@          	; 102503479
 86825811        	-0.7940     	0.000000    	                	; 102528685
 102633817       	-0.5600     	0.000000    	                	; 102633816_1
 102633817_1     	-0.5600     	0.009600    	Bolsward@       	; 102633816_2
 104190658       	-2.6700     	0.041000    	Heeg@           	; 104190695
 106883931       	-0.3590     	0.005800    	Bolsward@       	; 106883941
 108506237       	-0.8130     	1.040000    	Stavoren@       	; 108506230
 108506241       	-0.7430     	0.734200    	Stavoren@       	; 108506231
 110309372       	-0.5420     	0.070500    	Bolsward@       	; 110309032
 110309368       	-0.5880     	1.003500    	Bolsward@       	; 110309062
 110709561       	0.7050      	0.035000    	Workum@         	; 110708133
 112820642       	-0.5690     	0.313100    	Harlingen@      	; 112820559
 176227333       	-0.8430     	0.000000    	                	; 112823564
 112824201       	-0.6870     	0.043600    	Sneek@          	; 112824154
 113326215       	-0.6470     	0.608700    	Sneek@          	; 112824544
 112872579       	-0.2020     	3.555600    	Wommels@        	; 112872837
 112997652       	-1.0360     	0.781200    	Bolsward@       	; 112997607
 112998503       	-0.4530     	0.007900    	Workum@         	; 112998496
 113321051       	-0.7560     	0.000000    	                	; 113321044
 113321065       	-0.7560     	0.780700    	Sneek@          	; 113321059
 113332667       	-0.2420     	0.193800    	Bolsward@       	; 113332658
 113332325       	-0.2820     	0.598600    	Bolsward@       	; 113333178
 113937084       	-0.0580     	0.000000    	                	; 113937074
 113937080       	-0.0580     	0.000000    	                	; 113937383
 113937619       	-0.0770     	0.000000    	                	; 113937597
 113941478       	-1.1550     	0.204600    	Heeg@           	; 113941465
 113941515       	-1.0920     	0.116400    	Heeg@           	; 113941556
 114856478       	-0.7510     	0.010200    	Sneek@          	; 114856619
 115482367       	-0.3660     	1.523600    	Wommels@        	; 115482384
 120785570       	-1.8160     	0.137000    	Bolsward@       	; 120784668
 120784759       	-0.8930     	0.000000    	                	; 120784752
 120784846       	-0.7070     	0.000000    	                	; 120784839
 120785852       	-0.6710     	0.130100    	Bolsward@       	; 120785828
 120872775       	-1.0730     	0.033800    	Heeg@           	; 120872687
 120872751       	-1.0790     	0.002500    	Heeg@           	; 120872688
 120883453       	-0.4500     	0.264400    	Bolsward@       	; 120883430
 121224609       	-0.8200     	0.080600    	Sneek@          	; 121224400
 86824974        	-0.8610     	0.000000    	                	; 121224632
 121468580       	-1.4490     	1.398500    	Heeg@           	; 121467247
 121468564       	-1.3690     	0.575400    	Heeg@           	; 121468555
 121827254       	1.5690      	0.067700    	Stavoren@       	; 121827294
 122426489       	-1.5440     	2.228900    	Workum@         	; 122426328
 122426747       	-1.5440     	0.179000    	Workum@         	; 122426460
 123139938       	-0.3660     	0.068500    	Bolsward@       	; 123139655
 124957757       	-0.7190     	1.821700    	Bolsward@       	; 124957750
 124957771       	-0.7190     	0.000000    	                	; 124957751
 124958167       	-0.7650     	0.308600    	Bolsward@       	; 124957795
 125729324       	2.6660      	0.069900    	Stavoren@       	; 125729330
 125745249       	1.2790      	0.255800    	Stavoren@       	; 125744973
 125745066       	1.4910      	0.010800    	Stavoren@       	; 125744983
 125745265       	1.5850      	0.057100    	Stavoren@       	; 125745152
 125819779       	-0.7950     	0.340700    	Sneek@          	; 125819767
 126863424       	-0.5210     	0.031900    	Sneek@          	; 126862937
 176223318       	-0.4920     	0.000000    	                	; 126863055
 126863764       	-0.4920     	0.000000    	                	; 126873550_2
 127139913       	-0.8300     	1.172000    	Bolsward@       	; 127139906
 127140106       	-0.4250     	0.791300    	Bolsward@       	; 127140204
 127139951       	-0.8300     	0.000000    	                	; 127140418
 128387630       	-0.6860     	0.053300    	Heeg@           	; 128118871
 128118976       	-0.6860     	0.245200    	Heeg@           	; 128118876_1
 128387812       	-0.9410     	0.013000    	Heeg@           	; 128118951
 129460065       	-0.7270     	0.152600    	Sneek@          	; 128310969
 128118897       	-0.6860     	0.000000    	                	; 128387733
 128387705       	-0.7300     	0.109900    	Heeg@           	; 128387770
 129460216       	-0.6490     	0.098900    	Sneek@          	; 129460159
 130189857       	-0.2340     	0.060300    	Bolsward@       	; 130189909
 130523809       	-1.4330     	0.091900    	Sneek@          	; 130523785
 132843555       	-1.3710     	1.253200    	Sneek@          	; 132353430
 176230513       	0.0350      	0.404600    	Bolsward@       	; 132467847
 132467874       	0.0350      	0.000000    	                	; 132467867
 133110075       	-0.0880     	0.041800    	Bolsward@       	; 133110038
 130199210       	-0.6730     	0.028100    	Bolsward@       	; 133416163
 133416189       	-0.6730     	0.006100    	Bolsward@       	; 133416168_2
 137416671       	-0.3100     	0.004300    	Bolsward@       	; 137416662
 130523750       	-1.3900     	0.030100    	Sneek@          	; 138902537
 140304447       	-2.1470     	0.086900    	Workum@         	; 140304439
 144043888       	-0.9370     	0.014500    	Sneek@          	; 144043882
 144043892       	-1.0030     	0.748900    	Sneek@          	; 144043883
 146171298       	-1.7190     	0.209000    	Stavoren@       	; 146171293
 149130057       	1.8710      	0.068500    	Workum@         	; 149129864
 149130196       	1.9310      	0.008700    	Workum@         	; 149129883
 202393208       	-0.1290     	0.961100    	Workum@         	; 149130172
 151770594       	-0.8630     	0.121600    	Sneek@          	; 151770273
 152126596       	-1.1220     	0.090800    	Stavoren@       	; 152126012
 153347046       	-0.6100     	0.024200    	Stavoren@       	; 153346033
 152469103       	-1.3980     	0.009600    	Bolsward@       	; 153529340
 153734552       	-2.0410     	0.000000    	                	; 153734545
 154103190       	-1.9350     	0.039300    	Sneek@          	; 154103183
 154103695       	-0.2440     	0.018400    	Sneek@          	; 154103688
 155455810       	-1.0130     	0.000000    	                	; 155455797
 155992133       	-0.7000     	0.057000    	Sneek@          	; 155992120
 202393592       	-0.6760     	0.138600    	Sneek@          	; 155993176
 155993193       	-0.8600     	0.000000    	                	; 155993183
 158929893       	-0.5380     	0.051700    	Stavoren@       	; 158929806
 159475253       	-0.6090     	0.268700    	Sneek@          	; 159474966
 187757453       	-1.2730     	0.043000    	Workum@         	; 163053323
 176766479       	-0.6040     	0.337500    	Heeg@           	; 164563120
 202363513       	-1.1530     	0.000000    	                	; 164630185
 164853529       	-1.0990     	0.163400    	Sneek@          	; 164853448
 164853460       	-0.5890     	0.000000    	                	; 164853454
 164853542       	-1.0990     	0.139000    	Sneek@          	; 164853536
 164853618       	-0.0330     	0.000000    	                	; 164853611
 164853642       	-0.0330     	0.131000    	Sneek@          	; 164853635
 164853646       	-0.0330     	0.000000    	                	; 164853636
 164993755       	-0.9170     	1.021300    	Sneek@          	; 164993704
 164993812       	-0.8600     	0.068300    	Sneek@          	; 164993713
 166856840       	-0.7070     	0.000000    	                	; 166856518_2
 166856946       	-0.7070     	0.000000    	                	; 166856625
 166857098       	-1.6320     	0.507000    	Sneek@          	; 166857093
 167191924       	-2.0750     	0.386300    	Heeg@           	; 167191695
 167191987       	-1.0230     	0.023500    	Heeg@           	; 167191793
 167191823       	-3.1280     	1.222100    	Heeg@           	; 167191816
 257757868       	-0.5680     	0.042100    	Stavoren@       	; 167296782
 167398051       	-1.6070     	0.019500    	Stavoren@       	; 167398042
 167592022       	-0.8550     	0.027800    	Franeker@       	; 167591878
 168083090       	-1.1910     	0.000000    	                	; 168083034
 168083057       	-1.0940     	0.000000    	                	; 168083047_1
 168083057_1     	-1.0940     	0.000000    	                	; 168083047_2
 168797233       	-2.2860     	0.000000    	                	; 168797232_1
 168797233_1     	-2.2860     	0.000000    	                	; 168797232_2
 169493986       	-0.2370     	0.000000    	                	; 169493985_1
 169493986_1     	-0.2370     	0.000000    	                	; 169493985_2
 169494050       	-0.2310     	0.005500    	Bolsward@       	; 169494033
 169558017       	-1.2660     	0.165300    	Sneek@          	; 169558010
 169558059       	-1.3050     	0.023700    	Sneek@          	; 169558039
 169558117       	-1.2470     	0.608900    	Sneek@          	; 169558098
 169558404       	-1.2510     	0.050100    	Grou@           	; 169558255
 169558301       	-1.2310     	0.000000    	                	; 169558296
 169558326       	-1.2310     	0.000000    	                	; 169558325_1
 169558326_1     	-1.2310     	0.000000    	                	; 169558325_2
 169598440       	-1.3090     	0.394300    	Heeg@           	; 169598417
 169772029       	-1.2760     	0.000000    	                	; 169771949_1
 169772029_1     	-1.2760     	0.000000    	                	; 169771949_2
 169772022       	-1.2760     	0.000000    	                	; 169772021_1
 169772022_1     	-1.2760     	0.000000    	                	; 169772021_2
 171270437       	-0.8240     	0.130600    	Workum@         	; 171270430
 171289470       	-0.8280     	1.365300    	Franeker@       	; 171289401
 171369607       	-0.8020     	0.966400    	Sneek@          	; 171369438
 171369665       	-0.8420     	0.085400    	Sneek@          	; 171369658
 171844090       	-0.5650     	0.427200    	Wommels@        	; 171844083
 172532152       	-0.4560     	0.000000    	                	; 172532137
 86822277        	-0.4690     	0.000000    	                	; 172532220
 172532293       	-0.5000     	0.000000    	                	; 172532282
 172532376       	-0.5230     	0.000000    	                	; 172532375_1
 172532376_1     	-0.5230     	0.086800    	Workum@         	; 172532375_2
 172608745       	-2.0940     	0.133600    	Workum@         	; 172608736
 172975455       	-0.2160     	0.215900    	Heeg@           	; 172975298
 173813407       	-0.7150     	0.247000    	Bolsward@       	; 173813369_1
 173813466       	-0.6850     	0.028000    	Bolsward@       	; 173813384
 174498781       	-0.8080     	0.000000    	                	; 174498774
 174499289       	-0.6470     	0.149000    	Bolsward@       	; 174499284
 174680688       	-0.1550     	0.090300    	Heeg@           	; 174680563
 176222816       	0.0290      	0.000000    	                	; 176222786
 176227721       	-0.9120     	0.000000    	                	; 176227715
 176267497       	-0.9680     	0.094400    	Sneek@          	; 176267506
 176762963       	-1.3660     	0.231800    	Sneek@          	; 176762946
 179372897       	2.7870      	6.184198    	Stavoren@       	; 179372743
 179938518       	-1.1670     	1.335000    	Workum@         	; 179938505
 180210152       	-0.8960     	1.761700    	Sneek@          	; 180209890
 180900772       	-0.6760     	0.141000    	Sneek@          	; 180900747
 180901415       	-1.4030     	0.434200    	Sneek@          	; 180901410
 181302511       	-1.1030     	0.383000    	Sneek@          	; 181302504
 181304403       	1.3050      	0.068600    	Stavoren@       	; 181304051
 57270730        	1.0850      	0.441300    	Stavoren@       	; 181304485
 181304520       	2.5670      	0.000000    	                	; 181304513
 183961662       	-1.1460     	0.000000    	                	; 183961657
 212668076       	-0.2980     	0.265800    	Bolsward@       	; 184158472
 185206864       	-1.4640     	0.199000    	Stavoren@       	; 185206692
 185239198       	-0.7190     	5.072700    	Bolsward@       	; 185239175
 86825130        	-1.7850     	0.000000    	                	; 185616237
 86825133        	-1.9070     	0.000000    	                	; 185616259
 186587494       	-2.0020     	0.000000    	                	; 186587485
 187756794       	-0.3100     	0.000000    	                	; 187756773
 187756842       	-0.3100     	5.119400    	Stavoren_AMR@   	; 187756800
 187756896       	-0.8640     	4.597000    	Sneek_AMR@      	; 187756876
 187757449       	-1.2730     	111.584502  	Workum_AMR@     	; 187757440
 187758516       	0.1430      	1.419900    	Bolsward@       	; 187758506_1
 187758516_1     	0.1430      	0.011200    	Bolsward@       	; 187758506_2
 187758521       	-1.4590     	0.028200    	Stavoren@       	; 187758520_1
 187758521_1     	-1.4590     	0.341800    	Stavoren@       	; 187758520_2
 189078422       	-0.5180     	0.000000    	                	; 189078413
 189472258       	-0.7290     	0.080200    	Wommels@        	; 189472251
 190764044       	0.2560      	0.006200    	Harlingen@      	; 190764038
 190764048       	-1.0190     	0.027800    	Harlingen@      	; 190764039
 159579209       	-1.2490     	1.395200    	Sneek_AMR@      	; 191693525
 192347532       	-1.7030     	0.526800    	Stavoren@       	; 192347522
 194702330       	-2.3820     	0.195700    	Sneek@          	; 194702325
 194702580       	-0.2510     	0.000000    	                	; 194702570
 194702590       	-0.4590     	0.000000    	                	; 194702583
 194732089       	-0.9010     	0.014800    	Sneek@          	; 194702832
 194880239       	-0.6910     	0.746800    	Franeker@       	; 194880232
 194880306       	-0.7890     	0.453400    	Franeker@       	; 194880293
 195453239       	0.0590      	0.009700    	Stavoren@       	; 195453228
 196254917       	-0.6590     	0.011900    	Sneek@          	; 196254779
 196254929       	-0.6420     	0.003900    	Sneek@          	; 196254924
 196560074       	-0.4270     	0.072900    	Sneek@          	; 196559910
 196560007       	-0.4890     	0.000000    	                	; 196560000
 196560011       	-0.4890     	0.000000    	                	; 196560001
 196560102       	-0.3980     	0.003800    	Sneek@          	; 196560093
 197224148       	-0.0330     	0.521200    	Stavoren@       	; 197224067
 197311838       	-0.8740     	3.795500    	Sneek@          	; 197311825
 198337207       	-0.5840     	0.055800    	Wommels@        	; 198337205_2
 198337362       	-0.5190     	0.097100    	Wommels@        	; 198337355
 199435695       	-0.8940     	0.261700    	Sneek@          	; 199435568
 199994046       	-1.3190     	0.204500    	Stavoren@       	; 199994039
 200585300       	-0.3400     	0.000000    	                	; 200585294
 200585361       	-1.3910     	0.000000    	                	; 200585354
 Spannenburg_uit_1	0.7310      	0.000000    	                	; 200585390
 200585493       	0.5980      	0.000000    	                	; 200585404
 Spannenburg_uit_2	0.7310      	0.000000    	                	; 200585405
 200585461       	0.5980      	0.000000    	                	; 200585451
 56386175        	0.5980      	0.000000    	                	; 200585463_1
 56386175_1      	0.5980      	0.000000    	                	; 200585463_2
 201924789       	-1.2380     	0.031900    	Heeg@           	; 201924553
 201924906       	-1.4880     	0.139800    	Heeg@           	; 201924560
 204942115       	-1.0460     	0.000000    	                	; 204941828
 204941900       	-0.5450     	0.705700    	Heeg@           	; 204941833_2
 205408550       	-1.6910     	0.259600    	Heeg@           	; 205408515
 206647355       	-0.7830     	0.239500    	Workum@         	; 206647224
 206647302       	-0.7830     	0.000000    	                	; 206647301_1
 206647309       	-0.7830     	0.000000    	                	; 206647308_1
 206647309_1     	-0.7830     	0.000000    	                	; 206647308_2
 206946313       	-0.6110     	0.000000    	                	; 206946288_1
 206946320       	-0.6110     	0.000000    	                	; 206946319_1
 206946320_1     	-0.6110     	0.000000    	                	; 206946319_2
 206949141       	-0.7100     	0.000000    	                	; 206949134
 56399437        	1.0410      	0.183100    	Stavoren@       	; 207159631_2
 207915657       	-1.2660     	0.085700    	Sneek@          	; 207915652
 208081987       	-1.2580     	0.000000    	                	; 208081949_1
 208081987_1     	-1.2580     	0.000000    	                	; 208081949_2
 208081994       	-1.2580     	0.000000    	                	; 208081959_1
 208082124       	-0.4820     	0.010400    	Wommels@        	; 208082117
 208299364       	-0.8600     	0.743900    	Heeg@           	; 208299359
 208353739       	-1.6240     	0.031300    	Sneek@          	; 208353632
 208353984       	-1.5700     	0.104400    	Sneek@          	; 208353641
 208353759       	-1.6720     	0.033100    	Sneek@          	; 208353668
 208353764       	-1.5510     	0.028800    	Sneek@          	; 208353677
 208354265       	-1.7180     	0.209800    	Sneek@          	; 208354188
 208402284       	-0.4010     	0.000000    	                	; 208402283_1
 208402289_1     	-0.4010     	0.000000    	                	;
 208402289_2     	-0.4010     	0.000000    	                	;
 208425003       	-0.9880     	0.173300    	Bolsward@       	; 208424987
 208425035       	-0.9210     	0.157200    	Bolsward@       	; 208425029
 208426730       	0.0560      	0.057400    	Stavoren@       	; 208426696
 208816581       	-0.6120     	0.000000    	                	; 208816580_1
 208816581_1     	-0.6120     	0.000000    	                	; 208816580_2
 208816588_1     	-0.6120     	0.000000    	                	; 208816587_2
 209275331       	-1.3410     	0.017900    	Bolsward@       	; 209275264
 209275293       	-1.3410     	0.000000    	                	; 209275292_1
 209275293_1     	-1.3410     	0.000000    	                	; 209275292_2
 209275302       	-1.3410     	0.000000    	                	; 209275301_1
 209277029       	-0.2320     	0.003800    	Stavoren@       	; 209276849
 209276864       	-0.4240     	0.000000    	                	; 209276854
 209277105       	-1.8160     	0.090200    	Stavoren@       	; 209276985
 209277074       	-1.8160     	1.076900    	Stavoren@       	; 209277067
 209288382       	-0.2990     	0.000000    	                	; 209288381_1
 209288382_1     	-0.2990     	0.000000    	                	; 209288381_2
 209288390       	-0.2990     	0.000000    	                	; 209288389_1
 209288546       	-0.3200     	0.000000    	                	; 209288537
 209290162       	-1.2440     	0.069800    	Bolsward@       	; 209290094
 209290116       	-1.3000     	0.000000    	                	; 209290115_1
 209290116_1     	-1.3000     	0.000000    	                	; 209290115_2
 209290123       	-1.3000     	0.000000    	                	; 209290122_1
 209443347       	-1.4910     	0.000000    	                	; 209443364_1
 209443347_1     	-1.4910     	0.000000    	                	; 209443364_2
 209443343       	-1.4510     	0.000000    	                	; 209443368_1
 209443398       	-1.7390     	1.262500    	Sneek@          	; 209443391
 209591473       	-0.4480     	0.016100    	Sneek@          	; 209591471_2
 209591502       	-0.4480     	0.000000    	                	; 209591501_1
 209591502_1     	-0.4480     	0.000000    	                	; 209591501_2
 209591509_1     	-0.4480     	0.000000    	                	; 209591508_2
 209955260       	-0.2470     	1.072100    	Sneek@          	; 209955152
 209999640_1     	-1.6740     	0.000000    	                	; 209999672_2
 209999678       	-1.6740     	0.000000    	                	; 209999680_1
 209999678_1     	-1.6740     	0.000000    	                	; 209999680_2
 210000053       	-1.8830     	0.031700    	Heeg@           	; 210000047
 210000117       	-1.8840     	0.000000    	                	; 210000102_1
 210000117_1     	-1.8840     	0.000000    	                	; 210000102_2
 210000100_1     	-1.8840     	0.000000    	                	; 210000110_2
 210752297       	-1.2890     	1.227000    	Sneek@          	; 210752483
 210768614       	-0.5870     	0.090300    	Bolsward@       	; 210768518
 210768534       	-0.6390     	0.016100    	Bolsward@       	; 210768527
 210768554       	-0.5300     	0.041600    	Bolsward@       	; 210768538
 210768564       	-0.5300     	0.000000    	                	; 210768557
 210768574       	-0.5300     	0.135300    	Bolsward@       	; 210768558_2
 210799072       	2.9230      	0.105300    	Bolsward@       	; 210798971
 210799048       	2.8870      	0.186100    	Bolsward@       	; 210799043
 212398740       	-0.0950     	0.025800    	Bolsward@       	; 212398725
 212398899       	-0.5110     	0.559700    	Bolsward@       	; 212398731
 212492415       	-0.0870     	2.469900    	Wommels@        	; 212492164
 212492554       	-0.1220     	0.020400    	Wommels@        	; 212492535
 212668127       	-0.5270     	0.000000    	                	; 212668108
 213246237       	2.1960      	1.869701    	Stavoren@       	; 213246206
 56394049        	1.3950      	0.125300    	Stavoren@       	; 213246349_2
 213970153       	-0.0030     	0.024400    	Stavoren@       	; 213970146
 214382696       	-0.4240     	0.422100    	Stavoren@       	; 214382691
 214657530       	0.2890      	0.015500    	Stavoren@       	; 214657421
 215554610       	0.4990      	0.025000    	Bolsward@       	; 215554578
 215554606       	0.4990      	0.014400    	Bolsward@       	; 215554599
 215580343       	-0.8390     	0.985500    	Workum@         	; 215580333
 216182769       	0.6100      	0.070800    	Stavoren@       	; 216182756
 216182819       	0.7820      	0.518500    	Stavoren@       	; 216182802
 218653710       	-0.6860     	0.009500    	Workum@         	; 218653688
 219087814       	-0.8020     	0.360300    	Bolsward@       	; 219087223
 219088121       	-0.9150     	0.000000    	                	; 219088112
 219088233       	-1.1620     	0.676600    	Bolsward@       	; 219088228
 219804593       	-1.4870     	0.011100    	Sneek@          	; 219804491
 219804597       	-1.6060     	0.046600    	Sneek@          	; 219804537
 220279195       	-2.0380     	0.242600    	Sneek@          	; 220278243
 220278766       	-2.0990     	0.530700    	Sneek@          	; 220278363_1
 220278889       	-2.0990     	0.028800    	Sneek@          	; 220278884
 220279168       	-1.6120     	0.843800    	Sneek@          	; 220279163
 220621910       	-2.0860     	0.027300    	Sneek@          	; 220621903
 221077200       	-1.2440     	0.020200    	Sneek@          	; 221077153
 221903050       	-1.4880     	0.130100    	Sneek@          	; 221903018
 221903037       	-1.4880     	0.000000    	                	; 221903027
 224091286       	-0.0270     	0.021900    	Stavoren@       	; 224091128
 234318645       	-0.3980     	0.198300    	Stavoren@       	; 234318638
 234318655       	-0.3980     	0.000000    	                	; 234318639
 235260878       	-0.5760     	0.000000    	                	; 235260850
 235260882       	-0.5740     	0.000000    	                	; 235260863
 237006910       	5.1530      	0.074300    	Stavoren@       	; 237006355
 237006946       	3.4200      	0.021900    	Stavoren@       	; 237006365
 237006675       	-0.6710     	0.587800    	Stavoren@       	; 237006548
 237082372       	-1.8120     	0.026600    	Wommels@        	; 237063123
 237063139       	-0.1100     	0.000000    	                	; 237063132
 237082346       	-0.1100     	0.000000    	                	; 237063143_1
 237082346_1     	-0.1100     	0.000000    	                	; 237063143_2
 237577404       	-0.3150     	0.409900    	Heeg@           	; 237569757
 237811867       	-0.2370     	0.000000    	                	; 237811866_1
 237900664       	-2.3540     	1.312800    	Heeg@           	; 237900573
 238305861       	-1.0880     	2.908700    	Heeg@           	; 238305852
 238305934       	-0.4910     	0.117000    	Heeg@           	; 238305874
 238305951       	-0.5700     	0.005500    	Heeg@           	; 238305883
 238305917       	-1.6490     	0.013900    	Heeg@           	; 238305907
 238305938       	-0.6550     	0.434300    	Heeg@           	; 238305925
 238306556       	-1.7680     	0.000000    	                	; 238306551
 238405066       	-0.7000     	0.106300    	Sneek@          	; 238403848
 238403855       	-0.3430     	0.000000    	                	; 238403849
 238403865       	-0.3430     	0.000000    	                	; 238403858
 238404531       	-0.5980     	0.024300    	Sneek@          	; 238404173
 238405230       	-0.6330     	0.009900    	Sneek@          	; 238405115
 239511137       	-0.6070     	0.061000    	Bolsward@       	; 239511122
 241550982       	0.0510      	1.732400    	Bolsward@       	; 241550975
 241551299       	0.0510      	2.931600    	Bolsward@       	; 241550992
 241719170       	-0.5800     	0.120200    	Bolsward@       	; 241719163
 242305791       	-1.4980     	0.000000    	                	; 242305609_2
 242305759       	-1.4980     	1.448100    	Heeg@           	; 242305750
 242305857       	-1.4240     	0.008600    	Heeg@           	; 242305850
 242306373       	-1.1930     	0.099800    	Heeg@           	; 242306362
 243112812       	-1.3470     	1.837900    	Grou@           	; 243112553
 243385079       	-1.3610     	0.000000    	                	; 243385077_1
 243385079_1     	-1.3610     	0.000000    	                	; 243385077_2
 243385219       	-1.0650     	0.421200    	Sneek@          	; 243385198
 243385227       	-1.0660     	0.556100    	Grou@           	; 243385222
 244533656       	0.2460      	0.953600    	Bolsward@       	; 244441354
 244779055       	2.2560      	0.104400    	Workum@         	; 244778907
 246428512       	-0.3920     	0.061100    	Stavoren@       	; 246428468
 246428479       	-0.1590     	0.007200    	Stavoren@       	; 246428481
 246428534       	2.6230      	0.048500    	Stavoren@       	; 246428536
 246430065       	0.1300      	0.022000    	Stavoren@       	; 246430067
 246449299       	-0.4300     	0.626300    	Heeg@           	; 246449188
 248022154       	0.6110      	1.965100    	Workum@         	; 248022149
 248626684_1     	-0.8710     	0.000000    	                	; 248626675_2
 248626709       	-1.2760     	0.000000    	                	; 248626714_1
 248626734_1     	-1.2760     	0.000000    	                	; 248626736_2
 248819525       	-1.8430     	0.697800    	Sneek@          	; 248819316
 248819513       	-1.8430     	0.022400    	Sneek@          	; 248819321
 249000641       	0.3170      	0.642300    	Stavoren@       	; 249000609
 249002175       	-0.2410     	0.089800    	Stavoren@       	; 249002143
 249878322       	-0.8940     	0.000000    	                	;
 251452223       	-0.3360     	0.000000    	                	; 251452216
 251473010       	-0.2070     	2.894600    	Stavoren@       	; 251452276
 251452343       	-0.3970     	0.000000    	                	; 251452336
 251472898       	-0.3070     	0.131000    	Stavoren@       	; 251472850
 251472894       	-0.4200     	0.267300    	Stavoren@       	; 251472875
 251473132       	-0.2790     	0.117000    	Stavoren@       	; 251473117
 252174931       	-0.1130     	0.337600    	Stavoren@       	; 252174882
 252174935       	-0.6230     	0.022000    	Stavoren@       	; 252174894
 252691804       	0.8530      	0.000000    	                	; 252691799
 210752384       	-1.0450     	1.377100    	Sneek@          	; 253551828_2
 253726253       	2.6500      	0.012800    	Stavoren@       	; 253726255
 253946746       	-0.5500     	0.047300    	Bolsward@       	; 253946708
 253946750       	-0.5500     	1.708900    	Bolsward@       	; 253946721
 254052505       	-1.9500     	0.057100    	Heeg@           	; 254052156
 254052430       	-1.6320     	0.156900    	Heeg@           	; 254052178
 254053750       	-0.9240     	0.085100    	Heeg@           	; 254052290
 254053711       	-0.9510     	0.766500    	Heeg@           	; 254052312
 254052464       	-0.8670     	0.774200    	Heeg@           	; 254052451
 254459850       	-0.1280     	0.296700    	Stavoren@       	; 254459807
 254526805       	-0.9560     	0.024900    	Bolsward@       	; 254526782
 254885664       	-2.1170     	0.376500    	Workum@         	; 254885635
 255502450       	0.6200      	0.006800    	Bolsward@       	; 255502448_2
 255502533       	0.3440      	0.097300    	Bolsward@       	; 255502501
 255813218       	-1.2360     	0.006600    	Sneek@          	; 255813017
 255840794       	0.6250      	0.070500    	Stavoren@       	; 255840769
 256072718       	0.0430      	0.013100    	Stavoren@       	; 256072693
 257185055       	0.3130      	0.050100    	Stavoren@       	; 257185017
 257185489       	0.3550      	0.012100    	Stavoren@       	; 257185460
 257187171       	0.3050      	0.019500    	Stavoren@       	; 257187137
 257187175       	0.4140      	0.022900    	Stavoren@       	; 257187146
 257648159       	0.7790      	1.555700    	Bolsward@       	; 257648052